minlp-notes/research-20261001/scip-set-selection/logs/root/powerflow0014r.cornerS.s0.log
SCIP version 10.0.3 [precision: 8 byte] [memory: block] [mode: optimized] [LP solver: SoPlex 8.0.3] [GitHash: d409edf9f6]
Copyright (c) 2002-2026 Zuse Institute Berlin (ZIB)

External libraries: 
  Readline 8.3         GNU library for command line editing (gnu.org/s/readline)
  SoPlex 8.0.3         Linear programming solver developed at Zuse Institute Berlin (soplex.zib.de) [GitHash: 13e2ab24]
  CppAD 20180000.0     Algorithmic Differentiation of C++ algorithms developed by B. Bell (github.com/coin-or/CppAD)
  ZLIB 1.3.2           General purpose compression library by J. Gailly and M. Adler (zlib.net)
  LAPACK 3.12.0        General Linear Algebra PACKage (http://www.netlib.org/lapack/)
  MPFR 4.2.2           GNU Multiple Precision Floating-Point Reliable Library (mpfr.org)
  Boost 1.85.0         Boost C++ Libraries (boost.org)
  TinyCThread 1.2      small portable implementation of the C11 threads API (tinycthread.github.io)
  GMP 6.3.0            GNU Multiple Precision Arithmetic Library developed by T. Granlund (gmplib.org)
  AMPL/MP 4.0.4        AMPL .nl file reader library (github.com/ampl/mp)
  Nauty 2.8.8          Computing Graph Automorphism Groups by Brendan D. McKay (users.cecs.anu.edu.au/~bdm/nauty)
  sassy 2.1            Symmetry preprocessor by Markus Anders (github.com/markusa4/sassy)

user parameter file <scip.set> not found - using default parameters

table/nlhdlr_quadratic/active = TRUE
limits/memory = 6000
limits/time = 120
timing/clocktype = 1
nlhdlr/quadratic/useintersectioncuts = TRUE
nlhdlr/quadratic/usestrengthening = TRUE
nlhdlr/quadratic/setrule = 1
limits/nodes = 1

read problem </workspace/local-home/.cache/minlplib/minlplib/osil/powerflow0014r.osil>
============

original problem has 119 variables (0 bin, 0 int, 119 cont) and 198 constraints

presolving:
(round 1, fast)       15 del vars, 69 del conss, 0 add conss, 366 chg bounds, 0 chg sides, 0 chg coeffs, 0 upgd conss, 0 impls, 0 clqs, 0 implints
(round 2, fast)       15 del vars, 71 del conss, 0 add conss, 394 chg bounds, 0 chg sides, 0 chg coeffs, 0 upgd conss, 0 impls, 0 clqs, 0 implints
   (0.0s) symmetry computation started: requiring (bin +, int +, cont +), (fixed: bin -, int -, cont -)
   (0.0s) no symmetry present (symcode time: 0.00)
presolving (3 rounds: 3 fast, 1 medium, 1 exhaustive):
 15 deleted vars, 71 deleted constraints, 0 added constraints, 394 tightened bounds, 0 added holes, 0 changed sides, 0 changed coefficients
 0 implications, 0 cliques, 0 implied integral variables (0 bin, 0 int, 0 cont)
presolved problem has 104 variables (0 bin, 0 int, 104 cont) and 113 constraints
     18 constraints of type <linear>
     95 constraints of type <nonlinear>
Presolving Time: 0.02

 time | node  | left  |LP iter|LP it/n|mem/heur|mdpt |vars |cons |rows |cuts |sepa|confs|strbr|  dualbound   | primalbound  |  gap   | compl. 
  0.0s|     1 |     0 |   226 |     - |  4317k |   0 | 306 | 113 | 333 |   0 |  0 |   0 |   0 |-1.000000e-09 |      --      |    Inf | unknown
  0.1s|     1 |     0 |   278 |     - |  5729k |   0 | 306 | 113 | 352 |  19 |  1 |   0 |   0 |-1.000000e-09 |      --      |    Inf | unknown
  0.4s|     1 |     0 |   324 |     - |  6220k |   0 | 306 | 113 | 371 |  38 |  2 |   0 |   0 |-1.000000e-09 |      --      |    Inf | unknown
  0.8s|     1 |     0 |   406 |     - |  7041k |   0 | 306 | 113 | 389 |  56 |  3 |   0 |   0 |-1.000000e-09 |      --      |    Inf | unknown
  1.0s|     1 |     0 |   496 |     - |  7364k |   0 | 306 | 113 | 404 |  71 |  4 |   0 |   0 |-1.000000e-09 |      --      |    Inf | unknown
  1.6s|     1 |     0 |   573 |     - |  8475k |   0 | 306 | 113 | 421 |  88 |  5 |   0 |   0 |-1.000000e-09 |      --      |    Inf | unknown
  1.9s|     1 |     0 |   608 |     - |  8532k |   0 | 306 | 113 | 436 | 103 |  6 |   0 |   0 |-1.000000e-09 |      --      |    Inf | unknown
  2.8s|     1 |     0 |   678 |     - |  8579k |   0 | 306 | 113 | 453 | 120 |  7 |   0 |   0 |-1.000000e-09 |      --      |    Inf | unknown
  3.7s|     1 |     0 |   729 |     - |  8607k |   0 | 306 | 113 | 469 | 136 |  8 |   0 |   0 |-1.000000e-09 |      --      |    Inf | unknown
  4.7s|     1 |     0 |   767 |     - |    10M |   0 | 306 | 113 | 487 | 154 |  9 |   0 |   0 |-1.000000e-09 |      --      |    Inf | unknown
  5.5s|     1 |     0 |   823 |     - |    10M |   0 | 306 | 113 | 297 | 168 | 10 |   0 |   0 |-1.000000e-09 |      --      |    Inf | unknown
  6.5s|     1 |     0 |   895 |     - |    10M |   0 | 306 | 113 | 315 | 186 | 11 |   0 |   0 |-1.000000e-09 |      --      |    Inf | unknown
  7.9s|     1 |     0 | 14717 |     - |    13M |   0 | 306 | 113 | 437 | 308 | 11 |   0 |   0 |-1.000000e-09 |      --      |    Inf | unknown
  8.6s|     1 |     0 | 14764 |     - |    13M |   0 | 306 | 113 | 451 | 322 | 12 |   0 |   0 |-1.000000e-09 |      --      |    Inf | unknown
  9.6s|     1 |     0 | 14804 |     - |    17M |   0 | 306 | 113 | 488 | 422 | 13 |   0 |   0 |-1.000000e-09 |      --      |    Inf | unknown
 time | node  | left  |LP iter|LP it/n|mem/heur|mdpt |vars |cons |rows |cuts |sepa|confs|strbr|  dualbound   | primalbound  |  gap   | compl. 
 11.3s|     1 |     0 | 14849 |     - |    17M |   0 | 306 | 113 | 504 | 438 | 14 |   0 |   0 |-1.000000e-09 |      --      |    Inf | unknown
 12.3s|     1 |     0 | 14887 |     - |    20M |   0 | 306 | 113 | 605 | 539 | 15 |   0 |   0 |-1.000000e-09 |      --      |    Inf | unknown
 13.1s|     1 |     0 | 14947 |     - |    20M |   0 | 306 | 113 | 622 | 556 | 16 |   0 |   0 |-1.000000e-09 |      --      |    Inf | unknown
 14.2s|     1 |     0 | 14993 |     - |    23M |   0 | 306 | 113 | 725 | 659 | 17 |   0 |   0 |-1.000000e-09 |      --      |    Inf | unknown
 15.6s|     1 |     0 | 15059 |     - |    23M |   0 | 306 | 113 | 743 | 677 | 18 |   0 |   0 |-1.000000e-09 |      --      |    Inf | unknown
 16.9s|     1 |     0 | 15084 |     - |    28M |   0 | 306 | 113 | 764 | 778 | 19 |   0 |   0 |-1.000000e-09 |      --      |    Inf | unknown
 17.3s|     1 |     0 | 15127 |     - |    28M |   0 | 306 | 113 | 778 | 792 | 20 |   0 |   0 |-1.000000e-09 |      --      |    Inf | unknown
 17.3s|     1 |     0 | 15152 |     - |    28M |   0 | 306 | 113 | 794 | 808 | 21 |   0 |   0 |-1.000000e-09 |      --      |    Inf | unknown
 17.4s|     1 |     0 | 15206 |     - |    28M |   0 | 306 | 113 | 810 | 824 | 22 |   0 |   0 |-1.000000e-09 |      --      |    Inf | unknown
 17.4s|     1 |     0 | 15229 |     - |    28M |   0 | 306 | 113 | 817 | 831 | 23 |   0 |   0 |-1.000000e-09 |      --      |    Inf | unknown
 17.4s|     1 |     0 | 15274 |     - |    28M |   0 | 306 | 113 | 834 | 848 | 24 |   0 |   0 |-1.000000e-09 |      --      |    Inf | unknown
 17.4s|     1 |     0 | 15292 |     - |    28M |   0 | 306 | 113 | 469 | 856 | 25 |   0 |   0 |-1.000000e-09 |      --      |    Inf | unknown
 17.4s|     1 |     0 | 15338 |     - |    28M |   0 | 306 | 113 | 486 | 873 | 26 |   0 |   0 |-1.000000e-09 |      --      |    Inf | unknown
 17.4s|     1 |     0 | 15371 |     - |    28M |   0 | 306 | 113 | 505 | 892 | 27 |   0 |   0 |-1.000000e-09 |      --      |    Inf | unknown
 17.4s|     1 |     0 | 15414 |     - |    28M |   0 | 306 | 113 | 521 | 908 | 28 |   0 |   0 |-1.000000e-09 |      --      |    Inf | unknown
 time | node  | left  |LP iter|LP it/n|mem/heur|mdpt |vars |cons |rows |cuts |sepa|confs|strbr|  dualbound   | primalbound  |  gap   | compl. 
 17.4s|     1 |     0 | 15419 |     - |    28M |   0 | 306 | 113 | 526 | 913 | 29 |   0 |   0 |-1.000000e-09 |      --      |    Inf | unknown
 17.4s|     1 |     0 | 15456 |     - |    28M |   0 | 306 | 113 | 541 | 928 | 30 |   0 |   0 |-1.000000e-09 |      --      |    Inf | unknown
 17.4s|     1 |     0 | 15464 |     - |    28M |   0 | 306 | 113 | 281 | 933 | 31 |   0 |   0 |-1.000000e-09 |      --      |    Inf | unknown
 17.4s|     1 |     0 | 15529 |     - |    28M |   0 | 306 | 113 | 297 | 949 | 32 |   0 |   0 |-1.000000e-09 |      --      |    Inf | unknown
 17.4s|     1 |     0 | 15536 |     - |    28M |   0 | 306 | 113 | 301 | 953 | 33 |   0 |   0 |-1.000000e-09 |      --      |    Inf | unknown
 17.4s|     1 |     0 | 15578 |     - |    28M |   0 | 306 | 113 | 314 | 966 | 34 |   0 |   0 |-1.000000e-09 |      --      |    Inf | unknown
 17.4s|     1 |     0 | 15583 |     - |    28M |   0 | 306 | 113 | 319 | 971 | 35 |   0 |   0 |-1.000000e-09 |      --      |    Inf | unknown
 17.4s|     1 |     0 | 15638 |     - |    28M |   0 | 306 | 113 | 335 | 987 | 36 |   0 |   0 |-1.000000e-09 |      --      |    Inf | unknown
 17.4s|     1 |     0 | 15639 |     - |    28M |   0 | 306 | 113 | 255 | 988 | 37 |   0 |   0 |-1.000000e-09 |      --      |    Inf | unknown
 17.4s|     1 |     0 | 15679 |     - |    28M |   0 | 306 | 113 | 271 |1004 | 38 |   0 |   0 |-1.000000e-09 |      --      |    Inf | unknown
 17.4s|     1 |     0 | 15743 |     - |    28M |   0 | 306 | 113 | 296 |1029 | 39 |   0 |   0 |-1.000000e-09 |      --      |    Inf | unknown
 17.4s|     1 |     0 | 15814 |     - |    28M |   0 | 306 | 113 | 312 |1045 | 40 |   0 |   0 |-1.000000e-09 |      --      |    Inf | unknown
 17.4s|     1 |     0 | 15891 |     - |    28M |   0 | 306 | 113 | 350 |1083 | 41 |   0 |   0 |-1.000000e-09 |      --      |    Inf | unknown
 17.5s|     1 |     0 | 15979 |     - |    28M |   0 | 306 | 113 | 369 |1102 | 42 |   0 |   0 |-1.000000e-09 |      --      |    Inf | unknown
 17.5s|     1 |     0 | 16043 |     - |    28M |   0 | 306 | 113 | 312 |1108 | 43 |   0 |   0 |-1.000000e-09 |      --      |    Inf | unknown
 time | node  | left  |LP iter|LP it/n|mem/heur|mdpt |vars |cons |rows |cuts |sepa|confs|strbr|  dualbound   | primalbound  |  gap   | compl. 
 17.5s|     1 |     0 | 16147 |     - |    28M |   0 | 306 | 113 | 330 |1126 | 44 |   0 |   0 |-1.000000e-09 |      --      |    Inf | unknown
 17.5s|     1 |     0 | 16217 |     - |    28M |   0 | 306 | 113 | 363 |1159 | 45 |   0 |   0 |-1.000000e-09 |      --      |    Inf | unknown
 17.5s|     1 |     0 | 16379 |     - |    28M |   0 | 306 | 113 | 381 |1177 | 46 |   0 |   0 |-1.000000e-09 |      --      |    Inf | unknown
 17.5s|     1 |     0 | 16406 |     - |    28M |   0 | 306 | 113 | 387 |1183 | 47 |   0 |   0 |-1.000000e-09 |      --      |    Inf | unknown
 17.5s|     1 |     0 | 16488 |     - |    28M |   0 | 306 | 113 | 403 |1199 | 48 |   0 |   0 |-1.000000e-09 |      --      |    Inf | unknown
 17.5s|     1 |     0 | 16493 |     - |    28M |   0 | 306 | 113 | 327 |1203 | 49 |   0 |   0 |-1.000000e-09 |      --      |    Inf | unknown
 17.5s|     1 |     0 | 16540 |     - |    28M |   0 | 306 | 113 | 340 |1216 | 50 |   0 |   0 |-1.000000e-09 |      --      |    Inf | unknown
 17.5s|     1 |     0 | 16563 |     - |    28M |   0 | 306 | 113 | 344 |1220 | 51 |   0 |   0 |-1.000000e-09 |      --      |    Inf | unknown
 17.5s|     1 |     0 | 16638 |     - |    28M |   0 | 306 | 113 | 357 |1233 | 52 |   0 |   0 |-1.000000e-09 |      --      |    Inf | unknown
 17.5s|     1 |     0 | 16657 |     - |    28M |   0 | 306 | 113 | 364 |1240 | 53 |   0 |   0 |-1.000000e-09 |      --      |    Inf | unknown
 17.5s|     1 |     0 | 16801 |     - |    28M |   0 | 306 | 113 | 379 |1255 | 54 |   0 |   0 |-1.000000e-09 |      --      |    Inf | unknown
 17.5s|     1 |     0 | 16824 |     - |    28M |   0 | 306 | 113 | 259 |1265 | 55 |   0 |   0 |-1.000000e-09 |      --      |    Inf | unknown
 17.5s|     1 |     0 | 16876 |     - |    28M |   0 | 306 | 113 | 275 |1281 | 56 |   0 |   0 |-1.000000e-09 |      --      |    Inf | unknown
 17.5s|     1 |     0 | 16980 |     - |    28M |   0 | 306 | 113 | 311 |1317 | 57 |   0 |   0 |-1.000000e-09 |      --      |    Inf | unknown
 17.5s|     1 |     0 | 17174 |     - |    28M |   0 | 306 | 113 | 329 |1335 | 58 |   0 |   0 | 1.772429e+02 |      --      |    Inf | unknown
 time | node  | left  |LP iter|LP it/n|mem/heur|mdpt |vars |cons |rows |cuts |sepa|confs|strbr|  dualbound   | primalbound  |  gap   | compl. 
 17.5s|     1 |     0 | 17222 |     - |    28M |   0 | 306 | 113 | 368 |1374 | 59 |   0 |   0 | 2.923297e+02 |      --      |    Inf | unknown
 17.5s|     1 |     0 | 17265 |     - |    28M |   0 | 306 | 113 | 384 |1390 | 60 |   0 |   0 | 3.779637e+02 |      --      |    Inf | unknown
 17.5s|     1 |     0 | 17277 |     - |    28M |   0 | 306 | 113 | 351 |1403 | 61 |   0 |   0 | 3.956452e+02 |      --      |    Inf | unknown
 17.5s|     1 |     0 | 17336 |     - |    28M |   0 | 306 | 113 | 368 |1420 | 62 |   0 |   0 | 7.516690e+02 |      --      |    Inf | unknown
 17.5s|     1 |     0 | 17372 |     - |    28M |   0 | 306 | 113 | 385 |1437 | 63 |   0 |   0 | 7.701809e+02 |      --      |    Inf | unknown
 17.5s|     1 |     0 | 17414 |     - |    28M |   0 | 306 | 113 | 401 |1453 | 64 |   0 |   0 | 8.970310e+02 |      --      |    Inf | unknown
 17.5s|     1 |     0 | 17442 |     - |    28M |   0 | 306 | 113 | 411 |1463 | 65 |   0 |   0 | 9.484660e+02 |      --      |    Inf | unknown
 17.5s|     1 |     0 | 17523 |     - |    28M |   0 | 306 | 113 | 428 |1480 | 66 |   0 |   0 | 1.247309e+03 |      --      |    Inf | unknown
 17.5s|     1 |     0 | 17539 |     - |    28M |   0 | 306 | 113 | 370 |1492 | 67 |   0 |   0 | 1.263392e+03 |      --      |    Inf | unknown
 17.5s|     1 |     0 | 17606 |     - |    28M |   0 | 306 | 113 | 388 |1510 | 68 |   0 |   0 | 1.654219e+03 |      --      |    Inf | unknown
 17.5s|     1 |     0 | 17619 |     - |    28M |   0 | 306 | 113 | 398 |1520 | 69 |   0 |   0 | 1.677951e+03 |      --      |    Inf | unknown
 17.5s|     1 |     0 | 17703 |     - |    28M |   0 | 306 | 113 | 415 |1537 | 70 |   0 |   0 | 2.244845e+03 |      --      |    Inf | unknown
 17.5s|     1 |     0 | 17721 |     - |    28M |   0 | 306 | 113 | 431 |1553 | 71 |   0 |   0 | 2.261304e+03 |      --      |    Inf | unknown
 17.6s|     1 |     0 | 17834 |     - |    28M |   0 | 306 | 113 | 448 |1570 | 72 |   0 |   0 | 2.383007e+03 |      --      |    Inf | unknown
 17.6s|     1 |     0 | 17838 |     - |    28M |   0 | 306 | 113 | 361 |1574 | 73 |   0 |   0 | 2.383211e+03 |      --      |    Inf | unknown
 time | node  | left  |LP iter|LP it/n|mem/heur|mdpt |vars |cons |rows |cuts |sepa|confs|strbr|  dualbound   | primalbound  |  gap   | compl. 
 17.6s|     1 |     0 | 17905 |     - |    28M |   0 | 306 | 113 | 378 |1591 | 74 |   0 |   0 | 2.469686e+03 |      --      |    Inf | unknown
 17.6s|     1 |     0 | 17909 |     - |    28M |   0 | 306 | 113 | 383 |1596 | 75 |   0 |   0 | 2.469974e+03 |      --      |    Inf | unknown
 17.6s|     1 |     0 | 17992 |     - |    28M |   0 | 306 | 113 | 400 |1613 | 76 |   0 |   0 | 3.103486e+03 |      --      |    Inf | unknown
 17.6s|     1 |     0 | 17994 |     - |    28M |   0 | 306 | 113 | 403 |1616 | 77 |   0 |   0 | 3.103948e+03 |      --      |    Inf | unknown
 17.6s|     1 |     0 | 18144 |     - |    28M |   0 | 306 | 113 | 419 |1632 | 78 |   0 |   0 | 3.289048e+03 |      --      |    Inf | unknown
 17.6s|     1 |     0 | 18147 |     - |    28M |   0 | 306 | 113 | 345 |1635 | 79 |   0 |   0 | 3.294957e+03 |      --      |    Inf | unknown
 17.6s|     1 |     0 | 18200 |     - |    28M |   0 | 306 | 113 | 362 |1652 | 80 |   0 |   0 | 3.454780e+03 |      --      |    Inf | unknown
 17.6s|     1 |     0 | 18203 |     - |    28M |   0 | 306 | 113 | 365 |1655 | 81 |   0 |   0 | 3.455523e+03 |      --      |    Inf | unknown
 17.6s|     1 |     0 | 18282 |     - |    28M |   0 | 306 | 113 | 382 |1672 | 82 |   0 |   0 | 3.602160e+03 |      --      |    Inf | unknown
 17.6s|     1 |     0 | 18283 |     - |    28M |   0 | 306 | 113 | 384 |1674 | 83 |   0 |   0 | 3.602365e+03 |      --      |    Inf | unknown
 17.6s|     1 |     0 | 18390 |     - |    28M |   0 | 306 | 113 | 401 |1691 | 84 |   0 |   0 | 4.044167e+03 |      --      |    Inf | unknown
 17.6s|     1 |     0 | 18401 |     - |    28M |   0 | 306 | 113 | 334 |1699 | 85 |   0 |   0 | 4.052269e+03 |      --      |    Inf | unknown
 17.6s|     1 |     0 | 18427 |     - |    28M |   0 | 306 | 113 | 350 |1715 | 86 |   0 |   0 | 4.072280e+03 |      --      |    Inf | unknown
 17.6s|     1 |     0 | 18432 |     - |    28M |   0 | 306 | 113 | 355 |1720 | 87 |   0 |   0 | 4.072570e+03 |      --      |    Inf | unknown
 17.6s|     1 |     0 | 18504 |     - |    28M |   0 | 306 | 113 | 373 |1738 | 88 |   0 |   0 | 4.166389e+03 |      --      |    Inf | unknown
 time | node  | left  |LP iter|LP it/n|mem/heur|mdpt |vars |cons |rows |cuts |sepa|confs|strbr|  dualbound   | primalbound  |  gap   | compl. 
 17.6s|     1 |     0 | 18507 |     - |    28M |   0 | 306 | 113 | 376 |1741 | 89 |   0 |   0 | 4.166766e+03 |      --      |    Inf | unknown
 17.6s|     1 |     0 | 18564 |     - |    28M |   0 | 306 | 113 | 391 |1756 | 90 |   0 |   0 | 4.268986e+03 |      --      |    Inf | unknown
 17.6s|     1 |     0 | 18569 |     - |    28M |   0 | 306 | 113 | 325 |1759 | 91 |   0 |   0 | 4.269505e+03 |      --      |    Inf | unknown
 17.6s|     1 |     0 | 18594 |     - |    28M |   0 | 306 | 113 | 340 |1774 | 92 |   0 |   0 | 4.275737e+03 |      --      |    Inf | unknown
 17.6s|     1 |     0 | 18598 |     - |    28M |   0 | 306 | 113 | 344 |1778 | 93 |   0 |   0 | 4.275804e+03 |      --      |    Inf | unknown
 17.6s|     1 |     0 | 18646 |     - |    28M |   0 | 306 | 113 | 360 |1794 | 94 |   0 |   0 | 4.570626e+03 |      --      |    Inf | unknown
 17.6s|     1 |     0 | 18651 |     - |    28M |   0 | 306 | 113 | 363 |1797 | 95 |   0 |   0 | 4.573449e+03 |      --      |    Inf | unknown
 17.6s|     1 |     0 | 18686 |     - |    28M |   0 | 306 | 113 | 378 |1812 | 96 |   0 |   0 | 4.614284e+03 |      --      |    Inf | unknown
 17.6s|     1 |     0 | 18691 |     - |    28M |   0 | 306 | 113 | 322 |1817 | 97 |   0 |   0 | 4.614811e+03 |      --      |    Inf | unknown
 17.6s|     1 |     0 | 18718 |     - |    28M |   0 | 306 | 113 | 337 |1832 | 98 |   0 |   0 | 4.631797e+03 |      --      |    Inf | unknown
 17.6s|     1 |     0 | 18719 |     - |    28M |   0 | 306 | 113 | 338 |1833 | 99 |   0 |   0 | 4.631799e+03 |      --      |    Inf | unknown
 17.6s|     1 |     0 | 18766 |     - |    28M |   0 | 306 | 113 | 351 |1846 |100 |   0 |   0 | 4.952718e+03 |      --      |    Inf | unknown
 17.6s|     1 |     0 | 18799 |     - |    28M |   0 | 306 | 113 | 404 |1899 |101 |   0 |   0 | 4.968843e+03 |      --      |    Inf | unknown
 17.6s|     1 |     0 | 18845 |     - |    28M |   0 | 306 | 113 | 423 |1918 |102 |   0 |   0 | 5.000154e+03 |      --      |    Inf | unknown
 17.6s|     1 |     0 | 18850 |     - |    28M |   0 | 306 | 113 | 378 |1923 |103 |   0 |   0 | 5.001592e+03 |      --      |    Inf | unknown
 time | node  | left  |LP iter|LP it/n|mem/heur|mdpt |vars |cons |rows |cuts |sepa|confs|strbr|  dualbound   | primalbound  |  gap   | compl. 
 17.6s|     1 |     0 | 18938 |     - |    28M |   0 | 306 | 113 | 397 |1942 |104 |   0 |   0 | 5.121370e+03 |      --      |    Inf | unknown
 17.6s|     1 |     0 | 18945 |     - |    28M |   0 | 306 | 113 | 402 |1947 |105 |   0 |   0 | 5.121877e+03 |      --      |    Inf | unknown
 17.6s|     1 |     0 | 19039 |     - |    28M |   0 | 306 | 113 | 419 |1964 |106 |   0 |   0 | 5.405412e+03 |      --      |    Inf | unknown
 17.6s|     1 |     0 | 19041 |     - |    28M |   0 | 306 | 113 | 421 |1966 |107 |   0 |   0 | 5.407417e+03 |      --      |    Inf | unknown
 17.6s|     1 |     0 | 19068 |     - |    28M |   0 | 306 | 113 | 436 |1981 |108 |   0 |   0 | 5.413598e+03 |      --      |    Inf | unknown
 17.6s|     1 |     0 | 19071 |     - |    28M |   0 | 306 | 113 | 396 |1983 |109 |   0 |   0 | 5.413713e+03 |      --      |    Inf | unknown
 17.6s|     1 |     0 | 19116 |     - |    28M |   0 | 306 | 113 | 412 |1999 |110 |   0 |   0 | 5.446150e+03 |      --      |    Inf | unknown
 17.6s|     1 |     0 | 19117 |     - |    28M |   0 | 306 | 113 | 414 |2001 |111 |   0 |   0 | 5.446155e+03 |      --      |    Inf | unknown
 17.6s|     1 |     0 | 19131 |     - |    28M |   0 | 306 | 113 | 429 |2016 |112 |   0 |   0 | 5.447661e+03 |      --      |    Inf | unknown
 17.6s|     1 |     0 | 19132 |     - |    28M |   0 | 306 | 113 | 430 |2017 |113 |   0 |   0 | 5.447662e+03 |      --      |    Inf | unknown
 17.7s|     1 |     0 | 19280 |     - |    28M |   0 | 306 | 113 | 442 |2029 |114 |   0 |   0 | 5.750785e+03 |      --      |    Inf | unknown
 17.7s|     1 |     0 | 19290 |     - |    28M |   0 | 306 | 113 | 316 |2031 |115 |   0 |   0 | 5.753319e+03 |      --      |    Inf | unknown
 17.7s|     1 |     0 | 19328 |     - |    28M |   0 | 306 | 113 | 334 |2049 |116 |   0 |   0 | 5.840522e+03 |      --      |    Inf | unknown
 17.7s|     1 |     0 | 19330 |     - |    28M |   0 | 306 | 113 | 337 |2052 |117 |   0 |   0 | 5.841470e+03 |      --      |    Inf | unknown
 17.7s|     1 |     0 | 19400 |     - |    28M |   0 | 306 | 113 | 354 |2069 |118 |   0 |   0 | 6.036336e+03 |      --      |    Inf | unknown
 time | node  | left  |LP iter|LP it/n|mem/heur|mdpt |vars |cons |rows |cuts |sepa|confs|strbr|  dualbound   | primalbound  |  gap   | compl. 
 17.7s|     1 |     0 | 19414 |     - |    28M |   0 | 306 | 113 | 368 |2083 |119 |   0 |   0 | 6.053905e+03 |      --      |    Inf | unknown
 17.7s|     1 |     0 | 19460 |     - |    28M |   0 | 306 | 113 | 387 |2102 |120 |   0 |   0 | 6.222532e+03 |      --      |    Inf | unknown
 17.7s|     1 |     0 | 19463 |     - |    28M |   0 | 306 | 113 | 331 |2105 |121 |   0 |   0 | 6.223140e+03 |      --      |    Inf | unknown
 17.7s|     1 |     0 | 19492 |     - |    28M |   0 | 306 | 113 | 347 |2121 |122 |   0 |   0 | 6.265856e+03 |      --      |    Inf | unknown
 17.7s|     1 |     0 | 19494 |     - |    28M |   0 | 306 | 113 | 349 |2123 |123 |   0 |   0 | 6.265919e+03 |      --      |    Inf | unknown
 17.7s|     1 |     0 | 19574 |     - |    28M |   0 | 306 | 113 | 366 |2140 |124 |   0 |   0 | 6.344701e+03 |      --      |    Inf | unknown
 17.7s|     1 |     0 | 19576 |     - |    28M |   0 | 306 | 113 | 368 |2142 |125 |   0 |   0 | 6.344821e+03 |      --      |    Inf | unknown
 17.7s|     1 |     0 | 19678 |     - |    28M |   0 | 306 | 113 | 382 |2156 |126 |   0 |   0 | 7.005610e+03 |      --      |    Inf | unknown
 17.7s|     1 |     0 | 19682 |     - |    28M |   0 | 306 | 113 | 341 |2159 |127 |   0 |   0 | 7.010692e+03 |      --      |    Inf | unknown
 17.7s|     1 |     0 | 19705 |     - |    28M |   0 | 306 | 113 | 357 |2175 |128 |   0 |   0 | 7.023447e+03 |      --      |    Inf | unknown
 17.7s|     1 |     0 | 19712 |     - |    28M |   0 | 306 | 113 | 360 |2178 |129 |   0 |   0 | 7.025710e+03 |      --      |    Inf | unknown
 17.7s|     1 |     0 | 19757 |     - |    28M |   0 | 306 | 113 | 376 |2194 |130 |   0 |   0 | 7.051695e+03 |      --      |    Inf | unknown
 17.7s|     1 |     0 | 19760 |     - |    28M |   0 | 306 | 113 | 379 |2197 |131 |   0 |   0 | 7.052273e+03 |      --      |    Inf | unknown
 17.7s|     1 |     0 | 19833 |     - |    28M |   0 | 306 | 113 | 396 |2214 |132 |   0 |   0 | 7.089897e+03 |      --      |    Inf | unknown
 17.7s|     1 |     0 | 19835 |     - |    28M |   0 | 306 | 113 | 333 |2217 |133 |   0 |   0 | 7.089952e+03 |      --      |    Inf | unknown
 time | node  | left  |LP iter|LP it/n|mem/heur|mdpt |vars |cons |rows |cuts |sepa|confs|strbr|  dualbound   | primalbound  |  gap   | compl. 
 17.7s|     1 |     0 | 19871 |     - |    28M |   0 | 306 | 113 | 352 |2236 |134 |   0 |   0 | 7.115610e+03 |      --      |    Inf | unknown
 17.7s|     1 |     0 | 19874 |     - |    28M |   0 | 306 | 113 | 355 |2239 |135 |   0 |   0 | 7.115700e+03 |      --      |    Inf | unknown
 17.7s|     1 |     0 | 19923 |     - |    28M |   0 | 306 | 113 | 373 |2257 |136 |   0 |   0 | 7.124019e+03 |      --      |    Inf | unknown
 17.7s|     1 |     0 | 19926 |     - |    28M |   0 | 306 | 113 | 376 |2260 |137 |   0 |   0 | 7.124036e+03 |      --      |    Inf | unknown
 17.7s|     1 |     0 | 20019 |     - |    28M |   0 | 306 | 113 | 391 |2275 |138 |   0 |   0 | 7.197081e+03 |      --      |    Inf | unknown
 17.7s|     1 |     0 | 20024 |     - |    28M |   0 | 306 | 113 | 324 |2278 |139 |   0 |   0 | 7.197153e+03 |      --      |    Inf | unknown
 17.7s|     1 |     0 | 20062 |     - |    28M |   0 | 306 | 113 | 339 |2293 |140 |   0 |   0 | 7.255991e+03 |      --      |    Inf | unknown
 17.7s|     1 |     0 | 20071 |     - |    28M |   0 | 306 | 113 | 348 |2302 |141 |   0 |   0 | 7.256100e+03 |      --      |    Inf | unknown
 17.7s|     1 |     0 | 20087 |     - |    28M |   0 | 306 | 113 | 365 |2319 |142 |   0 |   0 | 7.256797e+03 |      --      |    Inf | unknown
 17.7s|     1 |     0 | 20088 |     - |    28M |   0 | 306 | 113 | 367 |2321 |143 |   0 |   0 | 7.256799e+03 |      --      |    Inf | unknown
 17.7s|     1 |     0 | 20189 |     - |    28M |   0 | 306 | 113 | 384 |2338 |144 |   0 |   0 | 7.276955e+03 |      --      |    Inf | unknown
 17.7s|     1 |     0 | 20190 |     - |    28M |   0 | 306 | 113 | 332 |2339 |145 |   0 |   0 | 7.276957e+03 |      --      |    Inf | unknown
 17.7s|     1 |     0 | 20222 |     - |    28M |   0 | 306 | 113 | 348 |2355 |146 |   0 |   0 | 7.299285e+03 |      --      |    Inf | unknown
 17.7s|     1 |     0 | 20224 |     - |    28M |   0 | 306 | 113 | 349 |2356 |147 |   0 |   0 | 7.299299e+03 |      --      |    Inf | unknown
 17.8s|     1 |     0 | 20252 |     - |    28M |   0 | 306 | 113 | 365 |2372 |148 |   0 |   0 | 7.307996e+03 |      --      |    Inf | unknown
 time | node  | left  |LP iter|LP it/n|mem/heur|mdpt |vars |cons |rows |cuts |sepa|confs|strbr|  dualbound   | primalbound  |  gap   | compl. 
 17.8s|     1 |     2 | 20252 |     - |    28M |   0 | 306 | 113 | 365 |2372 |149 |   0 |   0 | 7.307996e+03 |      --      |    Inf | unknown

SCIP Status        : solving was interrupted [node limit reached]
Solving Time (sec) : 17.75
Solving Nodes      : 1
Primal Bound       : +1.00000000000000e+20 (0 solutions)
Dual Bound         : +7.30799642301088e+03
Gap                : infinite


SCIP Status        : solving was interrupted [node limit reached]
Total Time         :      17.75
  solving          :      17.75
  presolving       :       0.02 (included in solving)
  reading          :       0.00
  copying          :       0.01 (1 #copies) (minimal 0.01, maximal 0.01, average 0.01)
Original Problem   :
  Problem name     : powerflow0014r
  Variables        : 119 (0 binary, 0 integer, 119 continuous)
  Implied int vars : 0 (0 binary, 0 integer, 0 continuous)
  Constraints      : 198 initial, 198 maximal
  Objective        : minimize, 6 non-zeros (abs.min = 1, abs.max = 4000)
Presolved Problem  :
  Problem name     : t_powerflow0014r
  Variables        : 306 (0 binary, 0 integer, 306 continuous)
  Implied int vars : 0 (0 binary, 0 integer, 0 continuous)
  Constraints      : 113 initial, 113 maximal
  Objective        : minimize, 6 non-zeros (abs.min = 1, abs.max = 4000)
  Nonzeros         : 491 constraint, 0 clique table
Presolvers         :   ExecTime  SetupTime  Calls  FixedVars   AggrVars   ChgTypes  ChgBounds   AddHoles    DelCons    AddCons   ChgSides   ChgCoefs
  boundshift       :       0.00       0.00      0          0          0          0          0          0          0          0          0          0
  convertinttobin  :       0.00       0.00      0          0          0          0          0          0          0          0          0          0
  domcol           :       0.00       0.00      1          0          0          0          0          0          0          0          0          0
  dualagg          :       0.00       0.00      0          0          0          0          0          0          0          0          0          0
  dualcomp         :       0.00       0.00      1          0          0          0          0          0          0          0          0          0
  dualinfer        :       0.00       0.00      0          0          0          0          0          0          0          0          0          0
  dualsparsify     :       0.00       0.00      1          0          0          0          0          0          0          0          0          0
  gateextraction   :       0.00       0.00      0          0          0          0          0          0          0          0          0          0
  implics          :       0.00       0.00      1          0          0          0          0          0          0          0          0          0
  implint          :       0.00       0.00      0          0          0          0          0          0          0          0          0          0
  inttobinary      :       0.00       0.00      0          0          0          0          0          0          0          0          0          0
  qpkktref         :       0.00       0.00      0          0          0          0          0          0          0          0          0          0
  redvub           :       0.00       0.00      0          0          0          0          0          0          0          0          0          0
  sparsify         :       0.00       0.00      1          0          0          0          0          0          0          0          0          0
  stuffing         :       0.00       0.00      0          0          0          0          0          0          0          0          0          0
  trivial          :       0.00       0.00      3          0          0          0          0          0          0          0          0          0
  tworowbnd        :       0.00       0.00      0          0          0          0          0          0          0          0          0          0
  dualfix          :       0.00       0.00      3          0          0          0          0          0          0          0          0          0
  genvbounds       :       0.00       0.00      0          0          0          0          0          0          0          0          0          0
  probing          :       0.00       0.00      0          0          0          0          0          0          0          0          0          0
  pseudoobj        :       0.00       0.00      0          0          0          0          0          0          0          0          0          0
  symmetry         :       0.00       0.00      1          0          0          0          0          0          0          0          0          0
  vbounds          :       0.00       0.00      0          0          0          0          0          0          0          0          0          0
  linear           :       0.00       0.00      4          1         14          0         54          0         31          0          0          0
  nonlinear        :       0.02       0.01      5          0          0          0        340          0         40          0          0          0
  components       :       0.00       0.00      1          0          0          0          0          0          0          0          0          0
  root node        :          -          -      -          0          -          -        189          -          -          -          -          -
Constraints        :     Number  MaxNumber  #Separate #Propagate    #EnfoLP    #EnfoRelax  #EnfoPS    #Check   #ResProp    Cutoffs    DomReds       Cuts    Applied      Conss   Children
  integral         :          0          0          0          0          0          0          0          9          0          0          0          0          0          0          0
  linear           :         18         18         80        120          0          0          0          9          0          0          0          0          0          0          0
  nonlinear        :         95         95         80        120         70          0          0          1          0         28          0       3014       1178          0          2
  fixedvar         :          0          0          0          0          0          0          0          0          0          0          0          0          0          0          0
  countsols        :          0          0          0          0          0          0          0          0          0          0          0          0          0          0          0
  components       :          0          0          0          0          0          0          0          0          0          0          0          0          0          0          0
Constraint Timings :  TotalTime  SetupTime   Separate  Propagate     EnfoLP     EnfoPS     EnfoRelax   Check    ResProp    SB-Prop
  integral         :       0.00       0.00       0.00       0.00       0.00       0.00       0.00       0.00       0.00       0.00
  linear           :       0.00       0.00       0.00       0.00       0.00       0.00       0.00       0.00       0.00       0.00
  nonlinear        :      16.59       0.01      11.30       0.02       5.26       0.00       0.00       0.00       0.00       0.00
  fixedvar         :       0.00       0.00       0.00       0.00       0.00       0.00       0.00       0.00       0.00       0.00
  countsols        :       0.00       0.00       0.00       0.00       0.00       0.00       0.00       0.00       0.00       0.00
  components       :       0.00       0.00       0.00       0.00       0.00       0.00       0.00       0.00       0.00       0.00
Propagators        : #Propagate   #ResProp    Cutoffs    DomReds
  dualfix          :          1          0          0          0
  genvbounds       :          0          0          0          0
  nlobbt           :          0          0          0          0
  obbt             :        142          0          0          0
  probing          :          0          0          0          0
  pseudoobj        :          0          0          0          0
  redcost          :          0          0          0          0
  rootredcost      :          0          0          0          0
  symmetry         :          0          0          0          0
  vbounds          :          0          0          0          0
Propagator Timings :  TotalTime  SetupTime   Presolve  Propagate    ResProp    SB-Prop
  dualfix          :       0.00       0.00       0.00       0.00       0.00       0.00
  genvbounds       :       0.00       0.00       0.00       0.00       0.00       0.00
  nlobbt           :       0.00       0.00       0.00       0.00       0.00       0.00
  obbt             :       0.70       0.00       0.00       0.70       0.00       0.00
  probing          :       0.00       0.00       0.00       0.00       0.00       0.00
  pseudoobj        :       0.00       0.00       0.00       0.00       0.00       0.00
  redcost          :       0.00       0.00       0.00       0.00       0.00       0.00
  rootredcost      :       0.00       0.00       0.00       0.00       0.00       0.00
  symmetry         :       0.00       0.00       0.00       0.00       0.00       0.00
  vbounds          :       0.00       0.00       0.00       0.00       0.00       0.00
Conflict Analysis  :       Time      Calls    Success    DomReds  Conflicts   Literals    Reconvs ReconvLits   Dualrays   Nonzeros   LP Iters   (pool size: [--,--])
  propagation      :       0.00          0          0          -          0        0.0          0        0.0          -          -          -
  infeasible LP    :       0.00          0          0          -          0        0.0          0        0.0          0        0.0          0
  bound exceed. LP :       0.00          0          0          -          0        0.0          0        0.0          0        0.0          0
  strong branching :       0.00          0          0          -          0        0.0          0        0.0          -          -          0
  pseudo solution  :       0.00          0          0          -          0        0.0          0        0.0          -          -          -
  applied globally :       0.00          -          -          0          0        0.0          -          -          0          -          -
  applied locally  :          -          -          -          0          0        0.0          -          -          0          -          -
Gen. Resolution CA :       Time      Calls    Success  Conflicts  LargeCoef  LongConfs    Length
  propagation      :       0.00          0          0          0          0          0       0.0
Separators         :   ExecTime  SetupTime      Calls  RootCalls    Cutoffs    DomReds  FoundCuts ViaPoolAdd  DirectAdd    Applied ViaPoolApp  DirectApp      Conss
  cut pool         :       0.00          -          0          0          -          -          0          0          -          -          -          -          -    (maximal pool size:          0)
  aggregation      :       0.00       0.00          0          0          0          0          0          0          0          0          0          0          0
  > cmir           :          -          -          -          -          -          -          -          0          0          0          0          0          -
  > flowcover      :          -          -          -          -          -          -          -          0          0          0          0          0          -
  > knapsackcover  :          -          -          -          -          -          -          -          0          0          0          0          0          -
  cgmip            :       0.00       0.00          0          0          0          0          0          0          0          0          0          0          0
  clique           :       0.00       0.00          0          0          0          0          0          0          0          0          0          0          0
  closecuts        :       0.00       0.00          0          0          0          0          0          0          0          0          0          0          0
  convexproj       :       0.00       0.00          0          0          0          0          0          0          0          0          0          0          0
  disjunctive      :       0.00       0.00          0          0          0          0          0          0          0          0          0          0          0
  eccuts           :       0.00       0.00          0          0          0          0          0          0          0          0          0          0          0
  flower           :       0.00       0.00         80         80          0          0          0          0          0          0          0          0          0
  gauge            :       0.00       0.00          0          0          0          0          0          0          0          0          0          0          0
  gomory           :       0.00       0.00          0          0          0          0          0          0          0          0          0          0          0
  > gomorymi       :          -          -          -          -          -          -          -          0          0          0          0          0          -
  > strongcg       :          -          -          -          -          -          -          -          0          0          0          0          0          -
  impliedbounds    :       0.00       0.00          0          0          0          0          0          0          0          0          0          0          0
  interminor       :       0.00       0.00          0          0          0          0          0          0          0          0          0          0          0
  intobj           :       0.00       0.00          0          0          0          0          0          0          0          0          0          0          0
  lagromory        :       0.00       0.00          0          0          0          0          0          0          0          0          0          0          0
  mcf              :       0.00       0.00          0          0          0          0          0          0          0          0          0          0          0
  minor            :       0.04       0.00         80         80          0          0       5351          0       5351       1194          0       1194          0
  mixing           :       0.00       0.00         80         80          0          0          0          0          0          0          0          0          0
  oddcycle         :       0.00       0.00          0          0          0          0          0          0          0          0          0          0          0
  rapidlearning    :       0.00       0.00          0          0          0          0          0          0          0          0          0          0          0
  rlt              :       0.00       0.00         10         10          0          0          0          0          0          0          0          0          0
  zerohalf         :       0.00       0.00          0          0          0          0          0          0          0          0          0          0          0
Cutselectors       :   ExecTime  SetupTime      Calls  RootCalls   Selected     Forced   Filtered  RootSelec   RootForc   RootFilt 
  hybrid           :       0.00       0.00         80         80       1312          0       5988       1312          0       5988
  ensemble         :       0.00       0.00          0          0          0          0          0          0          0          0
  dynamic          :       0.00       0.00          0          0          0          0          0          0          0          0
Pricers            :   ExecTime  SetupTime      Calls       Vars
  problem variables:       0.00          -          0          0
Branching Rules    :   ExecTime  SetupTime   BranchLP  BranchExt   BranchPS    Cutoffs    DomReds       Cuts      Conss   Children
  allfullstrong    :       0.00       0.00          0          0          0          0          0          0          0          0
  cloud            :       0.00       0.00          0          0          0          0          0          0          0          0
  distribution     :       0.00       0.00          0          0          0          0          0          0          0          0
  fullstrong       :       0.00       0.00          0          0          0          0          0          0          0          0
  gomory           :       0.00       0.00          0          0          0          0          0          0          0          0
  inference        :       0.00       0.00          0          0          0          0          0          0          0          0
  leastinf         :       0.00       0.00          0          0          0          0          0          0          0          0
  lookahead        :       0.00       0.00          0          0          0          0          0          0          0          0
  mostinf          :       0.00       0.00          0          0          0          0          0          0          0          0
  multaggr         :       0.00       0.00          0          0          0          0          0          0          0          0
  nodereopt        :       0.00       0.00          0          0          0          0          0          0          0          0
  pscost           :       0.00       0.00          0          0          0          0          0          0          0          0
  random           :       0.00       0.00          0          0          0          0          0          0          0          0
  relpscost        :       0.00       0.00          0          0          0          0          0          0          0          0
  vanillafullstrong:       0.00       0.00          0          0          0          0          0          0          0          0
Primal Heuristics  :   ExecTime  SetupTime      Calls      Found       Best
  LP solutions     :       0.00          -          -          0          0
  relax solutions  :       0.00          -          -          0          0
  pseudo solutions :       0.00          -          -          0          0
  strong branching :       0.00          -          -          0          0
  actconsdiving    :       0.00       0.00          0          0          0
  adaptivediving   :       0.00       0.00          0          0          0
  alns             :       0.02       0.00          1          0          0
  bound            :       0.00       0.00          0          0          0
  clique           :       0.00       0.00          0          0          0
  coefdiving       :       0.00       0.00          0          0          0
  completesol      :       0.00       0.00          0          0          0
  conflictdiving   :       0.00       0.00          0          0          0
  crossover        :       0.00       0.00          0          0          0
  dins             :       0.00       0.00          0          0          0
  distributiondivin:       0.00       0.00          0          0          0
  dks              :       0.00       0.00          0          0          0
  dps              :       0.00       0.00          0          0          0
  dualval          :       0.00       0.00          0          0          0
  farkasdiving     :       0.00       0.00          0          0          0
  feaspump         :       0.00       0.00          0          0          0
  fixandinfer      :       0.00       0.00          0          0          0
  fracdiving       :       0.00       0.00          0          0          0
  gins             :       0.00       0.00          0          0          0
  guideddiving     :       0.00       0.00          0          0          0
  indicator        :       0.00       0.00          0          0          0
  indicatordiving  :       0.00       0.00          0          0          0
  intdiving        :       0.00       0.00          0          0          0
  intshifting      :       0.00       0.00          0          0          0
  linesearchdiving :       0.00       0.00          0          0          0
  localbranching   :       0.00       0.00          0          0          0
  locks            :       0.00       0.00          0          0          0
  lpface           :       0.00       0.00          0          0          0
  mpec             :       0.00       0.00          0          0          0
  multistart       :       0.00       0.00          0          0          0
  mutation         :       0.00       0.00          0          0          0
  nlpdiving        :       0.00       0.00          0          0          0
  objpscostdiving  :       0.00       0.00          0          0          0
  octane           :       0.00       0.00          0          0          0
  ofins            :       0.00       0.00          0          0          0
  oneopt           :       0.00       0.00          0          0          0
  padm             :       0.00       0.00          0          0          0
  proximity        :       0.00       0.00          0          0          0
  pscostdiving     :       0.00       0.00          0          0          0
  randrounding     :       0.00       0.00          0          0          0
  rens             :       0.00       0.00          0          0          0
  reoptsols        :       0.00       0.00          0          0          0
  repair           :       0.00       0.00          0          0          0
  rins             :       0.00       0.00          0          0          0
  rootsoldiving    :       0.00       0.00          0          0          0
  rounding         :       0.00       0.00          0          0          0
  scheduler        :       0.00       0.00          0          0          0
  shiftandpropagate:       0.00       0.00          0          0          0
  shifting         :       0.00       0.00          0          0          0
  simplerounding   :       0.00       0.00          0          0          0
  subnlp           :       0.00       0.00          0          0          0
  trivial          :       0.00       0.00          2          0          0
  trivialnegation  :       0.00       0.00          0          0          0
  trustregion      :       0.00       0.00          0          0          0
  trysol           :       0.00       0.00          0          0          0
  twoopt           :       0.00       0.00          0          0          0
  undercover       :       0.04       0.00          1          0          0
  vbounds          :       0.00       0.00          0          0          0
  veclendiving     :       0.00       0.00          0          0          0
  zeroobj          :       0.00       0.00          0          0          0
  zirounding       :       0.00       0.00          0          0          0
  other solutions  :          -          -          -          0          -
LNS (Scheduler)    :      Calls  SetupTime  SolveTime SolveNodes       Sols       Best       Exp3    Exp3-IX  EpsGreedy        UCB TgtFixRate  Opt  Inf Node Stal  Sol  Usr Othr Actv
  zeroobjective    :          0       0.00       0.00          0          0          0    0.00000    1.00000   -1.00000    1.00000      0.900    0    0    0    0    0    0    0    1
  rens             :          0       0.00       0.00          0          0          0    0.00000    0.00000   -1.00000    1.00000      0.900    0    0    0    0    0    0    0    0
  rins             :          0       0.00       0.00          0          0          0    0.00000    0.00000   -1.00000    1.00000      0.900    0    0    0    0    0    0    0    0
  mutation         :          0       0.00       0.00          0          0          0    0.00000    0.00000   -1.00000    1.00000      0.900    0    0    0    0    0    0    0    0
  localbranching   :          0       0.00       0.00          0          0          0    0.00000    0.00000   -1.00000    1.00000      0.900    0    0    0    0    0    0    0    0
  crossover        :          0       0.00       0.00          0          0          0    0.00000    0.00000   -1.00000    1.00000      0.900    0    0    0    0    0    0    0    0
  proximity        :          0       0.00       0.00          0          0          0    0.00000    0.00000   -1.00000    1.00000      0.900    0    0    0    0    0    0    0    0
  dins             :          0       0.00       0.00          0          0          0    0.00000    0.00000   -1.00000    1.00000      0.900    0    0    0    0    0    0    0    0
  trustregion      :          0       0.00       0.00          0          0          0    0.00000    0.00000   -1.00000    1.00000      0.900    0    0    0    0    0    0    0    0
Expressions        :   #IntEval  IntEvalTi   #RevProp  RevPropTi    DomReds    Cutoffs  #Estimate  EstimTime  Branching  #Simplify SimplifyTi Simplified
  pow              :       4127       0.00        549       0.00        298          0      12931       0.00       1597        656       0.00         14
  prod             :       1372       0.00         88       0.00         19          0      26044       0.00       5316        816       0.00         24
  sum              :       2278       0.00       1462       0.00        417          0         96       0.00          0        402       0.00        119
  val              :          0       0.00          0       0.00          0          0          0       0.00          0          0       0.00          0
  var              :       6727       0.00          0       0.00          0          0          0       0.00          0       2426       0.00         42
Nlhdlrs            :    Detects  DetectAll DetectTime   #IntEval  IntEvalTi   #RevProp  RevPropTi    DomReds    Cutoffs   #Enforce   EnfoTime       Cuts  Branching
  soc              :          0          0       0.00          0       0.00          0       0.00          0          0          0       0.00          0          0
  convex           :          0          0       0.00          0       0.00          0       0.00          0          0          0       0.00          0          0
  concave          :          0          0       0.01          0       0.00          0       0.00          0          0          0       0.00          0          0
  signomial        :          0          0       0.00          0       0.00          0       0.00          0          0          0       0.00          0          0
  quotient         :          0          0       0.00          0       0.00          0       0.00          0          0          0       0.00          0          0
  quadratic        :         93        447       0.00       5487       0.01       5058       0.01       2066         19      13861      16.42       1850          0
  default          :        333       1366       0.00       6968       0.00       2411       0.00        734          1      38968       0.05       1164          0
  bilinear         :         76         76       0.00        796       0.00         68       0.00          0          0      25413       0.01          0          0
  perspective      :          0          0       0.00          0       0.00          0       0.00          0          0          0       0.00          0          0
Quadratic Nlhdlr   :    GenCuts    AddCuts  CouldImpr   NLargeRE AbrtBadRay AbrtPosPhi AbrtNonBas  NStrength  NMonoidal AveCutcoef    AveMonoidalImprov AveDensity AveEfficacy AveBCutsFrac 
  Quadratic Nlhdlr :       1860       1850          0         10         25          0          0        896          0   0.858152                   -1   0.480879  0.0842546          0
Quadratic SetSel   :       Rule      Calls    Changed   Fallback      Evals    AveGain IntercutTime   SelectTime    Applied     Active   RootAppl
  Quadratic SetSel :          1       1609       1498         12      37485    1.16777      16.1600       0.7300        476          0        476
LP                 :       Time      Calls Iterations  Iter/call   Iter/sec  Time-0-It Calls-0-It
  primal LP        :       0.00         24          0       0.00          -       0.00         24
  dual LP          :       0.32        150       6464      43.09   20200.00       0.00          0
  lex dual LP      :       0.00          0          0       0.00          -
  barrier LP       :       0.00          0          0       0.00          -       0.00          0
  resolve instable :       0.00          0          0       0.00          -
  diving/probing LP:       0.69        219      13788      62.96   19982.61
  strong branching :       0.00          0          0       0.00          -          -          -          0
    (at root node) :          -          0          0       0.00          -
  conflict analysis:       0.00          0          0       0.00          -
NLP relaxation     :
  solve time       :       0.00 (0 calls)
  convexity        :  nonconvex (18 linear rows, 1 convex ineq., 0 nonconvex ineq., 94 nonlinear eq. or two-sided ineq.)
Relaxators         :       Time      Calls    Cutoffs ImprBounds   ImprTime ReducedDom  Separated AddedConss
  benders          :       0.00          0          0          0       0.00          0          0          0
B&B Tree           :
  number of runs   :          1
  nodes            :          1 (1 internal, 0 leaves)
  feasible leaves  :          0
  infeas. leaves   :          0
  objective leaves :          0
  nodes (total)    :          1 (1 internal, 0 leaves)
  nodes left       :          2
  max depth        :          0
  max depth (total):          0
  backtracks       :          0 (0.0%)
  early backtracks :          0 (0.0%)
  nodes exc. ref.  :          0 (0.0%)
  delayed cutoffs  :          0
  repropagations   :          0 (0 domain reductions, 0 cutoffs)
  avg switch length:       1.00
  switching time   :       0.00
Root Node          :
  First LP value   : -1.00000000000000e-09
  First LP Iters   :        226 (22600.00 Iter/sec)
  First LP Time    :       0.01
  Final Dual Bound : +7.30799642301088e+03
  Final Root Iters :       6468
  Root LP Estimate : +7.30799642301088e+03
Solution           :
  Solutions found  :          0 (0 improvements)
  Primal Bound     :          -
  Dual Bound       : +7.30799642301088e+03
  Gap              :   infinite
Integrals          :      Total       Avg%
  primal-dual      :    1775.00     100.00
  primal-ref       :          -          - (not evaluated)
  dual-ref         :          -          - (not evaluated)



@@ wallclock 18.07 returncode 0
